         MACRO                                                          00010000
&NAME    DCS                                                            00020000
.********************************************************************** 00030000
.*                                                                    * 00040000
.*        DCS  -  DEFINE CONSTANT FOR SCREEN                          * 00050000
.*                                                                    * 00060000
.*        WRITTEN BY BILL GODFREY                                     * 00070000
.*        PLANNING RESEARCH CORPORATION                               * 00080000
.*        PRC COMPUTER CENTER, MCLEAN VA 22101                        * 00090000
.*        DATE WRITTEN: JANUARY 8 1981.                               * 00100000
.*        DATE UPDATED: MARCH 18 1982. (ROW AND COL IN PARENS)        * 00110000
.*        GP@P6          JULY 25 1986. (EXTENDED ATTRS, MEDIUM INTENS)* 00120000
.*        GP@P6     SEPTEMBER 23 1986. (ESCAPES, WRITES, RA, MFA, MF) * 00130000
.*        GP@P6        AUGUST 24 1987. (EAU, WSF, RB, RM, RMA)        * 00140000
.*        GP@P6       OCTOBER 15 1987. (3270 AND GRAPHIC EXTRAS)      * 00150000
.*                                                                    * 00160000
.*        THIS MACRO IS USED FOR CODING A FULLSCREEN 3270 DISPLAY.    * 00170000
.*                                                                    * 00180000
.*        SAMPLE                                                      * 00190000
.*           DCS    AL1(WCC),SBA,(1,1),RTA,(7,1),X'00',IC             * 00200000
.*                                                                    * 00210000
.*        IT SIMPLIFIES THE CODING OF A SCREEN IN THE FOLLOWING WAYS. * 00220000
.*        .  BUFFER ADDRESSES ARE SPECIFIED AS ROW AND COLUMN NUM-    * 00230000
.*           BER.  THE MACRO TRANSLATES THEM INTO THE 3270 CODE.      * 00240000
.*        .  ORDERS ARE SPECIFIED BY NAME, SUCH AS 'SBA' AND 'SF',    * 00250000
.*           SO YOU DONT HAVE TO KNOW THE HEX CODES FOR THEM,         * 00260000
.*        .  COMMONLY USED ATTRIBUTE BYTES ARE SPECIFIED BY NAME      * 00270000
.*           (A SET OF RESERVED NAMES) SO YOU DONT HAVE TO KNOW       * 00280000
.*           THE HEX CODES FOR THEM.                                  * 00290000
.*        .  IT SAVES A LOT OF DOCUMENTATION WORK, AND MAKES          * 00300000
.*           THE CODE EASIER FOR OTHERS TO UNDERSTAND.                * 00310000
.*                                                                    * 00320000
.*        THE USER OF THE MACRO MUST STILL UNDERSTAND HOW A SCREEN    * 00330000
.*        IS CONSTRUCTED BEFORE USING IT. THE MACRO MERELY MAKES IT   * 00340000
.*        EASIER TO SPECIFY THE VALUES.  IT DOES VERY LITTLE ERROR    * 00350000
.*        CHECKING.  FOR INSTANCE, IT DOES NOT CHECK TO SEE IF        * 00360000
.*        YOU FOLLOW AN 'SBA' WITH A BUFFER ADDRESS.  IT IS POSSIBLE  * 00370000
.*        TO CODE A THOROUGHLY INVALID SCREEN.                        * 00380000
.*                                                                    * 00390000
.*        THE MACRO MAY HAVE ANY NUMBER OF OPERANDS, CONSISTING OF    * 00400000
.*        ANY COMBINATION OF THE FOLLOWING.                           * 00410000
.*                                                                    * 00420000
.*        .  AN ESCAPE CHARACTER.                                     * 00430000
.*           VALID ESCAPE CHARACTERS ARE:                             * 00440000
.*           ESC - ESCAPE                                             * 00450000
.*           GE  - GRAPHIC ESCAPE                                     * 00460000
.*        .  A WRITE COMMAND.                                         * 00470000
.*           VALID WRITE COMMANDS ARE:                                * 00480000
.*           WR  - WRITE (WRT)                                        * 00490000
.*           EW  - ERASE/WRITE                                        * 00500000
.*           EWA - ERASE/WRITE ALTERNATE                              * 00510000
.*           EAU - ERASE ALL UNPROTECTED                              * 00520000
.*           WSF - WRITE STRUCTURED FIELD                             * 00530000
.*        .  A READ COMMAND.                                          * 00540000
.*           VALID READ COMMANDS ARE:                                 * 00550000
.*           RB  - READ BUFFER                                        * 00560000
.*           RM  - READ MODIFIED                                      * 00570000
.*           RMA - READ MODIFIED ALL                                  * 00580000
.*        .  A 3270 ORDER.                                            * 00590000
.*           VALID 3270 ORDERS ARE:                                   * 00600000
.*           SBA, SF, RA (RTA), IC, PT (HT), EUA, SA, SFE, MF (MFA).  * 00610000
.*        .  A BUFFER ADDRESS IN PARENTHESES.                         * 00620000
.*           IF AN OPERAND IS IN PARENTHESES, IT IS ASSUMED THAT      * 00630000
.*           THE ROW AND COLUMN NUMBER ARE BETWEEN THE PARENS,        * 00640000
.*           SEPARATED BY A COMMA.  EXAMPLE: (1,1)                    * 00650000
.*           THIS FORM OF BUFFER ADDRESS IS NEW AS OF MARCH 18 1982.  * 00660000
.*        .  A ROW OR COLUMN NUMBER OF A BUFFER ADDRESS (OLD FORMAT). * 00670000
.*           IF AN OPERAND IS NUMERIC, IT IS ASSUMED TO BE            * 00680000
.*           A ROW OR COLUMN NUMBER.  IT TAKES 2 OPERANDS TO          * 00690000
.*           SPECIFY THE BUFFER ADDRESS (ROW AND COLUMN) SO NUMERIC   * 00700000
.*           OPERANDS MUST ALWAYS BE SPECIFIED IN PAIRS, THE          * 00710000
.*           FIRST BEING THE ROW AND THE SECOND BEING THE COLUMN.     * 00720000
.*           THIS FORMAT IS SUPPORTED ONLY FOR COMPATIBILITY WITH     * 00730000
.*           THE ORIGINAL VERSION OF THIS MACRO.                      * 00740000
.*        .  AN ATTRIBUTE BYTE.                                       * 00750000
.*           VALID ATTRIBUTE BYTES ARE:                               * 00760000
.*           UNPLO  - UNPROTECTED NORMAL INTENSITY                    * 00770000
.*           UNPMD  - UNPROTECTED MEDIUM INTENSITY                    * 00780000
.*           UNPHI  - UNPROTECTED HIGH INTENSITY                      * 00790000
.*           UNPNP  - UNPROTECTED NO-DISPLAY                          * 00800000
.*           PROLO  - PROTECTED NORMAL INTENSITY                      * 00810000
.*           PROLOS - PROTECTED NORMAL INTENSITY AUTO-SKIP            * 00820000
.*           PROMD  - PROTECTED MEDIUM INTENSITY                      * 00830000
.*           PROMDS - PROTECTED MEDIUM INTENSITY AUTO-SKIP            * 00840000
.*           PROHI  - PROTECTED HIGH INTENSITY                        * 00850000
.*           PROHIS - PROTECTED HIGH INTENSITY AUTO-SKIP              * 00860000
.*        .  AN EXTENDED ATTRIBUTE TYPE.                              * 00870000
.*           VALID ATTRIBUTE TYPES ARE:                               * 00880000
.*           FIELD, VALIDN, OUTLIN, HILITE, COLOUR, PGMSYM, BKCOLR    * 00890000
.*           AND TRANSP.                                              * 00900000
.*        .  AN EXTENDED HIGHLIGHTING SPECIFICATION.                  * 00910000
.*           VALID HIGHLIGHTINGS ARE:                                 * 00920000
.*           NORMAL, BLINK, REVERSE AND USCORE.                       * 00930000
.*        .  AN EXTENDED COLOUR SPECIFICATION.                        * 00940000
.*           VALID COLOURS ARE:                                       * 00950000
.*           BLUE, RED, PINK, GREEN, TURQ, YELLOW, WHITE AND NORMAL.  * 00960000
.*        .  A BACKGROUND TRANSPARENCY SPECIFICATION.                 * 00970000
.*           VALID TRANSPARENCIES ARE:                                * 00980000
.*           NORMAL (TRANSPARENT) AND OPAQUE (NON-TRANSPARENT).       * 00990000
.*        .  A FORMAT CONTROL ORDER.                                  * 01000000
.*           VALID FORMAT CONTROL ORDERS ARE:                         * 01010000
.*           NUL, SUB, DUP, FM, FF, CR, NL, EM, EO, BYP, RES, SI, SO. * 01020000
.*        .  A GRAPHIC ORDER.                                         * 01030000
.*           VALID GRAPHIC ORDERS ARE TOO NUMEROUS TO MENTION.        * 01040000
.*        .  A HEX, CHARACTER, OR ADDRESS CONSTANT.                   * 01050000
.*           FOR EXAMPLE, X'00', OR C'ENTER SIGNON'                   * 01060000
.*           THIS CAN BE USED FOR DATA WITHIN FIELDS OR FOR           * 01070000
.*           ATTRIBUTE BYTES, ORDERS, THE 'WCC', OR BUFFER            * 01080000
.*           ADDRESSES (IF YOU WANT TO FIGURE THEM OUT).              * 01090000
.*                                                                    * 01100000
.*        IF THE OPERANDS DO NOT ALL FIT ON ONE LINE, YOU CAN         * 01110000
.*        EITHER CONTINUE THE LINE IN THE STANDARD ASSEMBLER WAY      * 01120000
.*        OR CODE THE MACRO AGAIN ON THE NEXT LINE WITH THE           * 01130000
.*        REMAINING OPERANDS.  THE RESULT IS THE SAME EITHER WAY.     * 01140000
.*                                                                    * 01150000
.*        THE BUFFER ADDRESS CONVERSIONS ARE FOR A                    * 01160000
.*        SCREEN SIZE OF 24 ROWS BY 80 COLUMNS. FOR SCREENS           * 01170000
.*        OF OTHER DIMENSIONS (43 BY 80, 12 BY 40) THE MACRO          * 01180000
.*        NEEDS ONLY A FEW CHANGES.                                   * 01190000
.*                                                                    * 01200000
.*        WARNING: IF YOU CODE THE MACRO WITH A LABEL IN COLUMN 1,    * 01210000
.*        AND YOU LIKE USING LENGTH ATTRIBUTES, BEWARE THAT THE       * 01220000
.*        LENGTH ATTRIBUTE OF THE LABEL IS NOT NECESSARILY THE        * 01230000
.*        TOTAL LENGTH OF THE DATA GENERATED BY THE MACRO.            * 01240000
.*                                                                    * 01250000
.*        PROGRAMMING NOTE:                                           * 01260000
.*        SA,NORMAL,NORMAL     WILL DO IN THREE BYTES WHAT            * 01270000
.*        SA,HILITE,NORMAL,SA,COLOUR,NORMAL,SA,PGMSYM,NORMAL          * 01280000
.*                             WILL DO IN NINE BYTES.                 * 01290000
.*                                                                    * 01300000
.*        TECHNICAL NOTES:                                            * 01310000
.*        ATTRIBUTES WITH CODES IN THE RANGE X'00' TO X'7F' HAVE      * 01320000
.*        VALUES GIVEN BY A 1-BYTE BINARY NUMBER.  EG. X'42' (COLOUR) * 01330000
.*        ATTRIBUTES WITH CODES IN THE RANGE X'C0' TO X'FF' HAVE      * 01340000
.*        BIT-ENCODED VALUES.  EG. X'C0' (3270 FIELD ATTRIBUTE)       * 01350000
.*        CHARACTER SETS:                                             * 01360000
.*        X'00' - DEFAULT               X'40'-X'EF' - LOADABLE LCID   * 01370000
.*        X'F0'-X'F7' - NON-LOADABLE LCID   X'F8'-X'FE' - DBCS LCID   * 01380000
.*        FIELD VALIDATION:                                           * 01390000
.*        SPECIFY A BYTE IN THE RANGE X'00' TO X'07' ON THE BASIS OF  * 01400000
.*        X'01' ON FOR TRIGGER, X'02' ON FOR MANDATORY ENTRY AND      * 01410000
.*        X'04' ON FOR MANDATORY FILL.                                * 01420000
.*        FIELD OUTLINING:                                            * 01430000
.*        SPECIFY A BYTE IN THE RANGE X'00' TO X'0F' ON THE BASIS OF  * 01440000
.*        X'01' ON FOR UNDERLINE, X'02' ON FOR RIGHT VERTICAL LINE,   * 01450000
.*        X'04' ON FOR OVERLINE AND X'08' ON FOR LEFT VERTICAL LINE.  * 01460000
.*                                                                    * 01470000
.********************************************************************** 01480000
.*                                                                      01490000
         LCLA  &R,&C,&P,&Q                                              01500000
         LCLA  &AN,&AS,&AL                                              01510000
         LCLB  &B,&NUMERIC,&INTEGER                                     01520000
         LCLC  &T(64)                                                   01530000
         LCLC  &N,&ROW,&COL                                             01540000
         LCLC  &CS,&STRING                                              01550000
&T(1)    SETC  '40'                                                     01560000
&T(2)    SETC  'C1'                                                     01570000
&T(3)    SETC  'C2'                                                     01580000
&T(4)    SETC  'C3'                                                     01590000
&T(5)    SETC  'C4'                                                     01600000
&T(6)    SETC  'C5'                                                     01610000
&T(7)    SETC  'C6'                                                     01620000
&T(8)    SETC  'C7'                                                     01630000
&T(9)    SETC  'C8'                                                     01640000
&T(10)   SETC  'C9'                                                     01650000
&T(11)   SETC  '4A'                                                     01660000
&T(12)   SETC  '4B'                                                     01670000
&T(13)   SETC  '4C'                                                     01680000
&T(14)   SETC  '4D'                                                     01690000
&T(15)   SETC  '4E'                                                     01700000
&T(16)   SETC  '4F'                                                     01710000
.*                                                                      01720000
&T(17)   SETC  '50'                                                     01730000
&T(18)   SETC  'D1'                                                     01740000
&T(19)   SETC  'D2'                                                     01750000
&T(20)   SETC  'D3'                                                     01760000
&T(21)   SETC  'D4'                                                     01770000
&T(22)   SETC  'D5'                                                     01780000
&T(23)   SETC  'D6'                                                     01790000
&T(24)   SETC  'D7'                                                     01800000
&T(25)   SETC  'D8'                                                     01810000
&T(26)   SETC  'D9'                                                     01820000
&T(27)   SETC  '5A'                                                     01830000
&T(28)   SETC  '5B'                                                     01840000
&T(29)   SETC  '5C'                                                     01850000
&T(30)   SETC  '5D'                                                     01860000
&T(31)   SETC  '5E'                                                     01870000
&T(32)   SETC  '5F'                                                     01880000
.*                                                                      01890000
&T(33)   SETC  '60'                                                     01900000
&T(34)   SETC  '61'                                                     01910000
&T(35)   SETC  'E2'                                                     01920000
&T(36)   SETC  'E3'                                                     01930000
&T(37)   SETC  'E4'                                                     01940000
&T(38)   SETC  'E5'                                                     01950000
&T(39)   SETC  'E6'                                                     01960000
&T(40)   SETC  'E7'                                                     01970000
&T(41)   SETC  'E8'                                                     01980000
&T(42)   SETC  'E9'                                                     01990000
&T(43)   SETC  '6A'                                                     02000000
&T(44)   SETC  '6B'                                                     02010000
&T(45)   SETC  '6C'                                                     02020000
&T(46)   SETC  '6D'                                                     02030000
&T(47)   SETC  '6E'                                                     02040000
&T(48)   SETC  '6F'                                                     02050000
.*                                                                      02060000
&T(49)   SETC  'F0'                                                     02070000
&T(50)   SETC  'F1'                                                     02080000
&T(51)   SETC  'F2'                                                     02090000
&T(52)   SETC  'F3'                                                     02100000
&T(53)   SETC  'F4'                                                     02110000
&T(54)   SETC  'F5'                                                     02120000
&T(55)   SETC  'F6'                                                     02130000
&T(56)   SETC  'F7'                                                     02140000
&T(57)   SETC  'F8'                                                     02150000
&T(58)   SETC  'F9'                                                     02160000
&T(59)   SETC  '7A'                                                     02170000
&T(60)   SETC  '7B'                                                     02180000
&T(61)   SETC  '7C'                                                     02190000
&T(62)   SETC  '7D'                                                     02200000
&T(63)   SETC  '7E'                                                     02210000
&T(64)   SETC  '7F'                                                     02220000
.*                                                                      02230000
&N       SETC  '&NAME'                                                  02240000
&AN      SETA  N'&SYSLIST          NUMBER OF OPERANDS                   02250000
&AS      SETA  0                                                        02260000
&B       SETB  0 FALSE                                                  02270000
.EACH    AIF   (&AN EQ 0).EPILOG                                        02280000
&AS      SETA  &AS+1                                                    02290000
&CS      SETC  '&AS'                                                    02300000
&AL      SETA  K'&SYSLIST(&AS)                                          02310000
         AIF   (T'&SYSLIST(&AS) EQ 'O').NEXT                            02320000
         AIF   ('&SYSLIST(&AS)'(1,1) EQ '(').PAIR                       02330000
&NUMERIC SETB  (T'&SYSLIST(&AS) EQ 'N')                                 02340000
&INTEGER SETB  ('&SYSLIST(&AS)'(1,1) GE '0')                            02350000
         AIF   (&NUMERIC AND &INTEGER).ROWCOL                           02360000
         AIF   (NOT &B).ROWCOLX                                         02370000
         MNOTE 4,'             &CS.) MISSING COLUMN NUMBER'             02380000
&B       SETB  0 FALSE                                                  02390000
.ROWCOLX ANOP                                                           02400000
&STRING  SETC  '&SYSLIST(&AS)'                                          02410000
.*             ESCAPES                                                  02420000
         AIF   ('&STRING' EQ 'ESC').ESC                                 02430000
         AIF   ('&STRING' EQ 'GE').GE                                   02440000
.*             WRITES                                                   02450000
         AIF   ('&STRING' EQ 'WR').WR                                   02460000
         AIF   ('&STRING' EQ 'WRT').WR                                  02470000
         AIF   ('&STRING' EQ 'EW').EW                                   02480000
         AIF   ('&STRING' EQ 'EWA').EWA                                 02490000
         AIF   ('&STRING' EQ 'EAU').EAU                                 02500000
         AIF   ('&STRING' EQ 'WSF').WSF                                 02510000
.*             READS                                                    02520000
         AIF   ('&STRING' EQ 'RB').RB                                   02530000
         AIF   ('&STRING' EQ 'RM').RM                                   02540000
         AIF   ('&STRING' EQ 'RMA').RMA                                 02550000
.*             3270 ORDERS                                              02560000
         AIF   ('&STRING' EQ 'SBA').SBA                                 02570000
         AIF   ('&STRING' EQ 'SF').SF                                   02580000
         AIF   ('&STRING' EQ 'SFE').SFE                                 02590001
         AIF   ('&STRING' EQ 'RA').RA                                   02600000
         AIF   ('&STRING' EQ 'RTA').RA                                  02610000
         AIF   ('&STRING' EQ 'IC').IC                                   02620000
         AIF   ('&STRING' EQ 'PT').PT                                   02630000
         AIF   ('&STRING' EQ 'HT').PT                                   02640000
         AIF   ('&STRING' EQ 'EUA').EUA                                 02650000
         AIF   ('&STRING' EQ 'SA').SA                                   02660000
         AIF   ('&STRING' EQ 'MF').MF                                   02670000
         AIF   ('&STRING' EQ 'MFA').MF                                  02680000
.*             ATTRIBUTES                                               02690000
         AIF   ('&STRING' EQ 'UNPLO').UNPLO                             02700000
         AIF   ('&STRING' EQ 'UNPMD').UNPMD                             02710000
         AIF   ('&STRING' EQ 'UNPHI').UNPHI                             02720000
         AIF   ('&STRING' EQ 'UNPNP').UNPNP                             02730000
         AIF   ('&STRING' EQ 'PROLO').PROLO                             02740000
         AIF   ('&STRING' EQ 'PROLOS').PROLOS                           02750000
         AIF   ('&STRING' EQ 'PROMD').PROMD                             02760000
         AIF   ('&STRING' EQ 'PROMDS').PROMDS                           02770000
         AIF   ('&STRING' EQ 'PROHI').PROHI                             02780000
         AIF   ('&STRING' EQ 'PROHIS').PROHIS                           02790000
.*             EXTENDED ATTRIBUTE TYPES                                 02800000
         AIF   ('&STRING' EQ 'FIELD').FIELD                             02810000
         AIF   ('&STRING' EQ 'VALIDN').VALIDN                           02820000
         AIF   ('&STRING' EQ 'OUTLIN').OUTLIN                           02830000
         AIF   ('&STRING' EQ 'HILITE').HILITE                           02840000
         AIF   ('&STRING' EQ 'COLOUR').COLOUR                           02850000
         AIF   ('&STRING' EQ 'PGMSYM').PGMSYM                           02860000
         AIF   ('&STRING' EQ 'BKCOLR').BKCOLR                           02870000
         AIF   ('&STRING' EQ 'TRANSP').TRANSP                           02880000
.*             HIGHLIGHTING                                             02890000
         AIF   ('&STRING' EQ 'NORMAL').NORMAL                           02900000
         AIF   ('&STRING' EQ 'BLINK').BLINK                             02910000
         AIF   ('&STRING' EQ 'REVERSE').REVERSE                         02920000
         AIF   ('&STRING' EQ 'USCORE').USCORE                           02930000
.*             COLOURS                                                  02940000
         AIF   ('&STRING' EQ 'BLUE').BLUE                               02950000
         AIF   ('&STRING' EQ 'RED').RED                                 02960000
         AIF   ('&STRING' EQ 'PINK').PINK                               02970000
         AIF   ('&STRING' EQ 'GREEN').GREEN                             02980000
         AIF   ('&STRING' EQ 'TURQ').TURQ                               02990000
         AIF   ('&STRING' EQ 'YELLOW').YELLOW                           03000000
         AIF   ('&STRING' EQ 'WHITE').WHITE                             03010000
.*             TRANSPARENCIES                                           03020000
         AIF   ('&STRING' EQ 'OPAQUE').OPAQUE                           03030000
.*             FORMAT CONTROL ORDERS                                    03040000
         AIF   ('&STRING' EQ 'NUL').NUL                                 03050000
         AIF   ('&STRING' EQ 'SUB').SUB                                 03060000
         AIF   ('&STRING' EQ 'DUP').DUP                                 03070000
         AIF   ('&STRING' EQ 'FM').FM                                   03080000
         AIF   ('&STRING' EQ 'FF').FF                                   03090000
         AIF   ('&STRING' EQ 'CR').CR                                   03100000
         AIF   ('&STRING' EQ 'NL').NL                                   03110000
         AIF   ('&STRING' EQ 'EM').EM                                   03120000
         AIF   ('&STRING' EQ 'EO').EO                                   03130000
         AIF   ('&STRING' EQ 'BYP').BYP                                 03140000
         AIF   ('&STRING' EQ 'RES').RES                                 03150000
         AIF   ('&STRING' EQ 'SI').SI                                   03160000
         AIF   ('&STRING' EQ 'SO').SO                                   03170000
.*             GRAPHIC ORDERS                                           03180000
         AIF   ('&STRING' EQ 'GBAR').GBAR                               03190000
         AIF   ('&STRING' EQ 'GBIMG').GBIMG                             03200000
         AIF   ('&STRING' EQ 'GCBIMG').GCBIMG                           03210000
         AIF   ('&STRING' EQ 'GCHST').GCHST                             03220000
         AIF   ('&STRING' EQ 'GCCHST').GCCHST                           03230000
         AIF   ('&STRING' EQ 'GEAR').GEAR                               03240000
         AIF   ('&STRING' EQ 'GEIMG').GEIMG                             03250000
         AIF   ('&STRING' EQ 'GFLT').GFLT                               03260000
         AIF   ('&STRING' EQ 'GCFLT').GCFLT                             03270000
         AIF   ('&STRING' EQ 'GFARC').GFARC                             03280000
         AIF   ('&STRING' EQ 'GCFARC').GCFARC                           03290000
         AIF   ('&STRING' EQ 'GIMD').GIMD                               03300000
         AIF   ('&STRING' EQ 'GLINE').GLINE                             03310000
         AIF   ('&STRING' EQ 'GCLINE').GCLINE                           03320000
         AIF   ('&STRING' EQ 'GMRK').GMRK                               03330000
         AIF   ('&STRING' EQ 'GRLINE').GRLINE                           03340000
         AIF   ('&STRING' EQ 'GCRLINE').GCRLINE                         03350000
         AIF   ('&STRING' EQ 'GSBMX').GSBMX                             03360000
         AIF   ('&STRING' EQ 'GSCA').GSCA                               03370000
         AIF   ('&STRING' EQ 'GSCC').GSCC                               03380000
         AIF   ('&STRING' EQ 'GSCD').GSCD                               03390000
         AIF   ('&STRING' EQ 'GSCR').GSCR                               03400000
         AIF   ('&STRING' EQ 'GSCS').GSCS                               03410000
         AIF   ('&STRING' EQ 'GSCH').GSCH                               03420000
         AIF   ('&STRING' EQ 'GSCOL').GSCOL                             03430000
         AIF   ('&STRING' EQ 'GSECOL').GSECOL                           03440000
         AIF   ('&STRING' EQ 'GSLT').GSLT                               03450000
         AIF   ('&STRING' EQ 'GSLW').GSLW                               03460000
         AIF   ('&STRING' EQ 'GSMC').GSMC                               03470000
         AIF   ('&STRING' EQ 'GSMP').GSMP                               03480000
         AIF   ('&STRING' EQ 'GSMS').GSMS                               03490000
         AIF   ('&STRING' EQ 'GSMT').GSMT                               03500000
         AIF   ('&STRING' EQ 'GSMX').GSMX                               03510000
         AIF   ('&STRING' EQ 'GSPS').GSPS                               03520000
         AIF   ('&STRING' EQ 'GSPT').GSPT                               03530000
         AIF   ('&STRING' EQ 'GCOMT').GCOMT                             03540000
         AIF   ('&STRING' EQ 'GSAP').GSAP                               03550000
         AIF   ('&STRING' EQ 'GSCP').GSCP                               03560000
         AIF   ('&STRING' EQ 'GSGCH').GSGCH                             03570000
         AIF   ('&STRING' EQ 'GEPROL').GEPROL                           03580000
         AIF   ('&STRING' EQ 'GESD').GESD                               03590000
         AIF   ('&STRING' EQ 'GERASE').GERASE                           03600000
         AIF   ('&STRING' EQ 'GSTOPDR').GSTOPDR                         03610000
         AIF   ('&STRING' EQ 'GATTCUR').GATTCUR                         03620000
         AIF   ('&STRING' EQ 'GDETCUR').GDETCUR                         03630000
         AIF   ('&STRING' EQ 'GSETCUR').GSETCUR                         03640000
         AIF   ('&STRING' EQ 'GSCUDEF').GSCUDEF                         03650000
         AIF   ('&STRING' EQ 'GNOP1').GNOP1                             03660000
.*             CONSTANTS                                                03670000
.*             IF THE OPERAND IS NONE OF THE ABOVE, IT IS               03680000
.*             PRESUMED TO BE ANY VALID 'DC' CONSTANT.                  03690000
.DC      ANOP                                                           03700000